<?xml version="1.0" encoding="UTF-8"?>

<!-- generated on 2025-02-01 19:12:00 by Eclipse SUMO netconvert Version 1.21.0
<netconvertConfiguration xmlns:xsi="http://www.w3.org/2001/XMLSchema-instance" xsi:noNamespaceSchemaLocation="http://sumo.dlr.de/xsd/netconvertConfiguration.xsd">

    <input>
        <node-files value="nodes.xml"/>
        <edge-files value="edges.xml"/>
    </input>

    <output>
        <output-file value="network.net.xml"/>
    </output>

    <tls_building>
        <tls.green.time value="20"/>
        <tls.yellow.time value="10"/>
        <tls.red.time value="90"/>
    </tls_building>

</netconvertConfiguration>
-->

<net version="1.20" junctionCornerDetail="5" limitTurnSpeed="5.50" xmlns:xsi="http://www.w3.org/2001/XMLSchema-instance" xsi:noNamespaceSchemaLocation="http://sumo.dlr.de/xsd/net_file.xsd">

    <location netOffset="100.00,0.00" convBoundary="0.00,0.00,400.00,300.00" origBoundary="-100.00,0.00,300.00,300.00" projParameter="!"/>

    <edge id=":junction1_0" function="internal">
        <lane id=":junction1_0_0" index="0" speed="10.36" length="24.51" shape="95.20,10.40 96.15,3.75 99.00,-1.00 103.75,-3.85 110.40,-4.80"/>
        <lane id=":junction1_0_1" index="1" speed="9.26" length="19.35" shape="98.40,10.40 99.15,5.15 101.40,1.40 105.15,-0.85 110.40,-1.60"/>
    </edge>
    <edge id=":junction1_2" function="internal">
        <lane id=":junction1_2_0" index="0" speed="3.65" length="1.44" shape="98.40,10.40 99.20,9.20"/>
    </edge>
    <edge id=":junction1_9" function="internal">
        <lane id=":junction1_9_0" index="0" speed="3.65" length="3.23" shape="99.20,9.20 100.00,8.80 100.80,9.20 101.60,10.40"/>
    </edge>
    <edge id=":junction1_3" function="internal">
        <lane id=":junction1_3_0" index="0" speed="6.51" length="9.03" shape="110.40,4.80 107.95,5.15 106.20,6.20 105.15,7.95 104.80,10.40"/>
        <lane id=":junction1_3_1" index="1" speed="8.00" length="14.19" shape="110.40,1.60 106.55,2.15 103.80,3.80 102.15,6.55 101.60,10.40"/>
    </edge>
    <edge id=":junction1_5" function="internal">
        <lane id=":junction1_5_0" index="0" speed="3.65" length="1.44" shape="110.40,1.60 109.20,0.80"/>
    </edge>
    <edge id=":junction1_10" function="internal">
        <lane id=":junction1_10_0" index="0" speed="3.65" length="3.23" shape="109.20,0.80 108.80,0.00 109.20,-0.80 110.40,-1.60"/>
    </edge>
    <edge id=":junction1_6" function="internal">
        <lane id=":junction1_6_0" index="0" speed="13.89" length="21.12" shape="89.60,-8.00 95.88,-7.50 100.20,-6.40 104.41,-5.30 110.40,-4.80"/>
        <lane id=":junction1_6_1" index="1" speed="13.89" length="21.12" shape="89.60,-4.80 95.88,-4.30 100.20,-3.20 104.41,-2.10 110.40,-1.60"/>
    </edge>
    <edge id=":junction1_8" function="internal">
        <lane id=":junction1_8_0" index="0" speed="9.26" length="14.65" shape="89.60,-1.60 94.85,-0.85 98.60,1.40 100.85,5.15 100.93,5.74"/>
    </edge>
    <edge id=":junction1_11" function="internal">
        <lane id=":junction1_11_0" index="0" speed="9.26" length="4.70" shape="100.93,5.74 101.60,10.40"/>
    </edge>
    <edge id=":junction2_0" function="internal">
        <lane id=":junction2_0_0" index="0" speed="6.51" length="9.03" shape="298.40,10.40 298.05,7.95 297.00,6.20 295.25,5.15 292.80,4.80"/>
    </edge>
    <edge id=":junction2_1" function="internal">
        <lane id=":junction2_1_0" index="0" speed="3.65" length="1.44" shape="298.40,10.40 299.20,9.20"/>
    </edge>
    <edge id=":junction2_7" function="internal">
        <lane id=":junction2_7_0" index="0" speed="3.65" length="3.23" shape="299.20,9.20 300.00,8.80 300.80,9.20 301.60,10.40"/>
    </edge>
    <edge id=":junction2_2" function="internal">
        <lane id=":junction2_2_0" index="0" speed="6.51" length="9.03" shape="307.20,4.80 304.75,5.15 303.00,6.20 301.95,7.95 301.60,10.40"/>
    </edge>
    <edge id=":junction2_3" function="internal">
        <lane id=":junction2_3_0" index="0" speed="13.89" length="14.40" shape="307.20,4.80 292.80,4.80"/>
        <lane id=":junction2_3_1" index="1" speed="13.89" length="14.40" shape="307.20,1.60 292.80,1.60"/>
    </edge>
    <edge id=":junction2_5" function="internal">
        <lane id=":junction2_5_0" index="0" speed="9.32" length="19.63" shape="292.80,-4.80 296.65,-3.85 299.40,-1.00 301.05,3.75 301.60,10.40"/>
    </edge>
    <edge id=":junction2_6" function="internal">
        <lane id=":junction2_6_0" index="0" speed="3.65" length="2.34" shape="292.80,-1.60 294.00,-0.80 294.40,0.00"/>
    </edge>
    <edge id=":junction2_8" function="internal">
        <lane id=":junction2_8_0" index="0" speed="3.65" length="2.34" shape="294.40,0.00 294.00,0.80 292.80,1.60"/>
    </edge>
    <edge id=":junction3_0" function="internal">
        <lane id=":junction3_0_0" index="0" speed="13.89" length="14.40" shape="95.20,207.20 95.20,192.80"/>
        <lane id=":junction3_0_1" index="1" speed="13.89" length="14.40" shape="98.40,207.20 98.40,192.80"/>
    </edge>
    <edge id=":junction3_2" function="internal">
        <lane id=":junction3_2_0" index="0" speed="8.67" length="12.65" shape="98.40,207.20 99.15,203.35 101.40,200.60 105.15,198.95 106.23,198.84"/>
    </edge>
    <edge id=":junction3_7" function="internal">
        <lane id=":junction3_7_0" index="0" speed="8.67" length="4.20" shape="106.23,198.84 110.40,198.40"/>
    </edge>
    <edge id=":junction3_3" function="internal">
        <lane id=":junction3_3_0" index="0" speed="8.67" length="16.85" shape="110.40,201.60 105.15,201.05 101.40,199.40 99.15,196.65 98.40,192.80"/>
    </edge>
    <edge id=":junction3_4" function="internal">
        <lane id=":junction3_4_0" index="0" speed="3.65" length="1.44" shape="110.40,201.60 109.20,200.80"/>
    </edge>
    <edge id=":junction3_8" function="internal">
        <lane id=":junction3_8_0" index="0" speed="3.65" length="3.23" shape="109.20,200.80 108.80,200.00 109.20,199.20 110.40,198.40"/>
    </edge>
    <edge id=":junction3_5" function="internal">
        <lane id=":junction3_5_0" index="0" speed="6.51" length="9.03" shape="104.80,192.80 105.15,195.25 106.20,197.00 107.95,198.05 110.40,198.40"/>
    </edge>
    <edge id=":junction3_6" function="internal">
        <lane id=":junction3_6_0" index="0" speed="3.65" length="1.44" shape="101.60,192.80 100.80,194.00"/>
    </edge>
    <edge id=":junction3_9" function="internal">
        <lane id=":junction3_9_0" index="0" speed="3.65" length="3.23" shape="100.80,194.00 100.00,194.40 99.20,194.00 98.40,192.80"/>
    </edge>
    <edge id=":junction4_0" function="internal">
        <lane id=":junction4_0_0" index="0" speed="6.51" length="9.03" shape="298.40,207.20 298.05,204.75 297.00,203.00 295.25,201.95 292.80,201.60"/>
    </edge>
    <edge id=":junction4_1" function="internal">
        <lane id=":junction4_1_0" index="0" speed="13.89" length="14.40" shape="298.40,207.20 298.40,192.80"/>
    </edge>
    <edge id=":junction4_2" function="internal">
        <lane id=":junction4_2_0" index="0" speed="8.00" length="4.07" shape="301.60,192.80 301.05,196.65 300.96,196.80"/>
    </edge>
    <edge id=":junction4_3" function="internal">
        <lane id=":junction4_3_0" index="0" speed="3.65" length="1.44" shape="301.60,192.80 300.80,194.00"/>
    </edge>
    <edge id=":junction4_6" function="internal">
        <lane id=":junction4_6_0" index="0" speed="8.00" length="10.13" shape="300.96,196.80 299.40,199.40 296.65,201.05 292.80,201.60"/>
    </edge>
    <edge id=":junction4_7" function="internal">
        <lane id=":junction4_7_0" index="0" speed="3.65" length="3.23" shape="300.80,194.00 300.00,194.40 299.20,194.00 298.40,192.80"/>
    </edge>
    <edge id=":junction4_4" function="internal">
        <lane id=":junction4_4_0" index="0" speed="6.51" length="9.03" shape="292.80,198.40 295.25,198.05 297.00,197.00 298.05,195.25 298.40,192.80"/>
    </edge>
    <edge id=":junction4_5" function="internal">
        <lane id=":junction4_5_0" index="0" speed="3.65" length="4.67" shape="292.80,198.40 294.00,199.20 294.40,200.00 294.00,200.80 292.80,201.60"/>
    </edge>

    <edge id="1to1" from="1i" to="junction1" priority="1">
        <lane id="1to1_0" index="0" speed="13.89" length="89.60" shape="0.00,-8.00 89.60,-8.00"/>
        <lane id="1to1_1" index="1" speed="13.89" length="89.60" shape="0.00,-4.80 89.60,-4.80"/>
        <lane id="1to1_2" index="2" speed="13.89" length="89.60" shape="0.00,-1.60 89.60,-1.60"/>
    </edge>
    <edge id="1to2" from="junction1" to="junction2" priority="1">
        <lane id="1to2_0" index="0" speed="13.89" length="182.40" shape="110.40,-4.80 292.80,-4.80"/>
        <lane id="1to2_1" index="1" speed="13.89" length="182.40" shape="110.40,-1.60 292.80,-1.60"/>
    </edge>
    <edge id="1to3" from="junction1" to="junction3" priority="1">
        <lane id="1to3_0" index="0" speed="13.89" length="182.40" shape="104.80,10.40 104.80,192.80"/>
        <lane id="1to3_1" index="1" speed="13.89" length="182.40" shape="101.60,10.40 101.60,192.80"/>
    </edge>
    <edge id="2to1" from="junction2" to="junction1" priority="1">
        <lane id="2to1_0" index="0" speed="13.89" length="182.40" shape="292.80,4.80 110.40,4.80"/>
        <lane id="2to1_1" index="1" speed="13.89" length="182.40" shape="292.80,1.60 110.40,1.60"/>
    </edge>
    <edge id="2to2" from="2i" to="junction2" priority="1">
        <lane id="2to2_0" index="0" speed="13.89" length="92.80" shape="400.00,4.80 307.20,4.80"/>
        <lane id="2to2_1" index="1" speed="13.89" length="92.80" shape="400.00,1.60 307.20,1.60"/>
    </edge>
    <edge id="2to4" from="junction2" to="junction4" priority="2">
        <lane id="2to4_0" index="0" speed="13.89" length="182.40" shape="301.60,10.40 301.60,192.80"/>
    </edge>
    <edge id="3to1" from="junction3" to="junction1" priority="1">
        <lane id="3to1_0" index="0" speed="13.89" length="182.40" shape="95.20,192.80 95.20,10.40"/>
        <lane id="3to1_1" index="1" speed="13.89" length="182.40" shape="98.40,192.80 98.40,10.40"/>
    </edge>
    <edge id="3to3" from="3i" to="junction3" priority="1">
        <lane id="3to3_0" index="0" speed="13.89" length="92.80" shape="95.20,300.00 95.20,207.20"/>
        <lane id="3to3_1" index="1" speed="13.89" length="92.80" shape="98.40,300.00 98.40,207.20"/>
    </edge>
    <edge id="3to4" from="junction3" to="junction4" priority="2">
        <lane id="3to4_0" index="0" speed="13.89" length="182.40" shape="110.40,198.40 292.80,198.40"/>
    </edge>
    <edge id="4to2" from="junction4" to="junction2" priority="2">
        <lane id="4to2_0" index="0" speed="13.89" length="182.40" shape="298.40,192.80 298.40,10.40"/>
    </edge>
    <edge id="4to3" from="junction4" to="junction3" priority="2">
        <lane id="4to3_0" index="0" speed="13.89" length="182.40" shape="292.80,201.60 110.40,201.60"/>
    </edge>
    <edge id="4to4" from="4i" to="junction4" priority="2">
        <lane id="4to4_0" index="0" speed="13.89" length="92.80" shape="298.40,300.00 298.40,207.20"/>
    </edge>

    <tlLogic id="junction1" type="static" programID="0" offset="0">
        <phase duration="20" state="rrrGGgGGg"/>
        <phase duration="10" state="rrryyyGGg"/>
        <phase duration="6"  state="rrrrrrGGG"/>
        <phase duration="10" state="rrrrrryyy"/>
        <phase duration="20" state="GGgGGrrrr"/>
        <phase duration="10" state="yyyGGrrrr"/>
    </tlLogic>
    <tlLogic id="junction2" type="static" programID="0" offset="0">
        <phase duration="20" state="rrGGGrr"/>
        <phase duration="10" state="rryyyrr"/>
        <phase duration="20" state="GgrrrGg"/>
        <phase duration="10" state="yyrrryy"/>
    </tlLogic>
    <tlLogic id="junction3" type="static" programID="0" offset="0">
        <phase duration="20" state="GGgrrGg"/>
        <phase duration="10" state="yyyrrGy"/>
        <phase duration="20" state="rrrGgGr"/>
        <phase duration="10" state="rrryyGr"/>
    </tlLogic>

    <junction id="1i" type="dead_end" x="0.00" y="0.00" incLanes="" intLanes="" shape="0.00,0.00 0.00,-9.60"/>
    <junction id="2i" type="dead_end" x="400.00" y="0.00" incLanes="" intLanes="" shape="400.00,0.00 400.00,6.40"/>
    <junction id="3i" type="dead_end" x="100.00" y="300.00" incLanes="" intLanes="" shape="100.00,300.00 93.60,300.00"/>
    <junction id="4i" type="dead_end" x="300.00" y="300.00" incLanes="" intLanes="" shape="300.00,300.00 296.80,300.00"/>
    <junction id="junction1" type="traffic_light" x="100.00" y="0.00" incLanes="3to1_0 3to1_1 2to1_0 2to1_1 1to1_0 1to1_1 1to1_2" intLanes=":junction1_0_0 :junction1_0_1 :junction1_9_0 :junction1_3_0 :junction1_3_1 :junction1_10_0 :junction1_6_0 :junction1_6_1 :junction1_11_0" shape="93.60,10.40 106.40,10.40 106.84,8.18 107.40,7.40 108.18,6.84 109.18,6.51 110.40,6.40 110.40,-6.40 105.94,-6.64 102.67,-7.23 97.33,-8.77 94.06,-9.36 89.60,-9.60 89.60,0.00 91.82,1.16 92.60,2.60 93.16,4.62 93.49,7.22">
        <request index="0" response="111000000" foes="111100000" cont="0"/>
        <request index="1" response="111000000" foes="111100000" cont="0"/>
        <request index="2" response="100011000" foes="100011000" cont="1"/>
        <request index="3" response="000000000" foes="100000100" cont="0"/>
        <request index="4" response="000000000" foes="100000100" cont="0"/>
        <request index="5" response="011000011" foes="011000011" cont="1"/>
        <request index="6" response="000000000" foes="000100011" cont="0"/>
        <request index="7" response="000000000" foes="000100011" cont="0"/>
        <request index="8" response="000011000" foes="000011111" cont="1"/>
    </junction>
    <junction id="junction2" type="traffic_light" x="300.00" y="0.00" incLanes="4to2_0 2to2_0 2to2_1 1to2_0 1to2_1" intLanes=":junction2_0_0 :junction2_7_0 :junction2_2_0 :junction2_3_0 :junction2_3_1 :junction2_5_0 :junction2_8_0" shape="296.80,10.40 303.20,10.40 303.64,8.18 304.20,7.40 304.98,6.84 305.98,6.51 307.20,6.40 307.20,0.00 303.94,-0.47 301.72,-1.66 298.28,-4.74 296.06,-5.93 292.80,-6.40 292.80,6.40 295.02,6.84 295.80,7.40 296.36,8.18 296.69,9.18">
        <request index="0" response="0011000" foes="0011000" cont="0"/>
        <request index="1" response="0100100" foes="0100100" cont="1"/>
        <request index="2" response="0000000" foes="0100010" cont="0"/>
        <request index="3" response="0000000" foes="1100001" cont="0"/>
        <request index="4" response="0000000" foes="1100001" cont="0"/>
        <request index="5" response="0011100" foes="0011110" cont="0"/>
        <request index="6" response="0011000" foes="0011000" cont="1"/>
    </junction>
    <junction id="junction3" type="traffic_light" x="100.00" y="200.00" incLanes="3to3_0 3to3_1 4to3_0 1to3_0 1to3_1" intLanes=":junction3_0_0 :junction3_0_1 :junction3_7_0 :junction3_3_0 :junction3_8_0 :junction3_5_0 :junction3_9_0" shape="93.60,207.20 100.00,207.20 101.16,204.98 102.60,204.20 104.62,203.64 107.22,203.31 110.40,203.20 110.40,196.80 108.18,196.36 107.40,195.80 106.84,195.02 106.51,194.02 106.40,192.80 93.60,192.80">
        <request index="0" response="0000000" foes="1001000" cont="0"/>
        <request index="1" response="0000000" foes="1001000" cont="0"/>
        <request index="2" response="0100000" foes="0111000" cont="1"/>
        <request index="3" response="0000111" foes="1000111" cont="0"/>
        <request index="4" response="0100100" foes="0100100" cont="1"/>
        <request index="5" response="0000000" foes="0010100" cont="0"/>
        <request index="6" response="0001011" foes="0001011" cont="1"/>
    </junction>
    <junction id="junction4" type="priority" x="300.00" y="200.00" incLanes="4to4_0 2to4_0 3to4_0" intLanes=":junction4_0_0 :junction4_1_0 :junction4_6_0 :junction4_7_0 :junction4_4_0 :junction4_5_0" shape="296.80,207.20 300.00,207.20 300.24,204.08 300.83,201.83 302.37,198.17 302.96,195.92 303.20,192.80 296.80,192.80 296.36,195.02 295.80,195.80 295.02,196.36 294.02,196.69 292.80,196.80 292.80,203.20 295.02,203.64 295.80,204.20 296.36,204.98 296.69,205.98">
        <request index="0" response="000000" foes="100100" cont="0"/>
        <request index="1" response="000000" foes="011100" cont="0"/>
        <request index="2" response="000011" foes="100011" cont="1"/>
        <request index="3" response="010010" foes="010010" cont="1"/>
        <request index="4" response="000010" foes="001010" cont="0"/>
        <request index="5" response="000101" foes="000101" cont="0"/>
    </junction>

    <junction id=":junction1_9_0" type="internal" x="99.20" y="9.20" incLanes=":junction1_2_0 1to1_2 2to1_0 2to1_1" intLanes=":junction1_3_0 :junction1_3_1 :junction1_8_0"/>
    <junction id=":junction1_10_0" type="internal" x="109.20" y="0.80" incLanes=":junction1_5_0 1to1_0 1to1_1 3to1_0 3to1_1" intLanes=":junction1_0_0 :junction1_0_1 :junction1_6_0 :junction1_6_1"/>
    <junction id=":junction1_11_0" type="internal" x="100.93" y="5.74" incLanes=":junction1_8_0 2to1_0 2to1_1" intLanes=":junction1_0_0 :junction1_0_1 :junction1_2_0 :junction1_3_0 :junction1_3_1"/>
    <junction id=":junction2_7_0" type="internal" x="299.20" y="9.20" incLanes=":junction2_1_0 1to2_0 2to2_0" intLanes=":junction2_2_0 :junction2_5_0"/>
    <junction id=":junction2_8_0" type="internal" x="294.40" y="0.00" incLanes=":junction2_6_0 2to2_0 2to2_1 4to2_0" intLanes=":junction2_0_0 :junction2_3_0 :junction2_3_1"/>
    <junction id=":junction3_7_0" type="internal" x="106.23" y="198.84" incLanes=":junction3_2_0 1to3_0" intLanes=":junction3_3_0 :junction3_4_0 :junction3_5_0"/>
    <junction id=":junction3_8_0" type="internal" x="109.20" y="200.80" incLanes=":junction3_4_0 1to3_0 3to3_1" intLanes=":junction3_2_0 :junction3_5_0"/>
    <junction id=":junction3_9_0" type="internal" x="100.80" y="194.00" incLanes=":junction3_6_0 3to3_0 3to3_1 4to3_0" intLanes=":junction3_0_0 :junction3_0_1 :junction3_3_0"/>
    <junction id=":junction4_6_0" type="internal" x="300.96" y="196.80" incLanes=":junction4_2_0 4to4_0" intLanes=":junction4_0_0 :junction4_1_0 :junction4_5_0"/>
    <junction id=":junction4_7_0" type="internal" x="300.80" y="194.00" incLanes=":junction4_3_0 3to4_0 4to4_0" intLanes=":junction4_1_0 :junction4_4_0"/>

    <connection from="1to1" to="1to2" fromLane="0" toLane="0" via=":junction1_6_0" tl="junction1" linkIndex="6" dir="s" state="O"/>
    <connection from="1to1" to="1to2" fromLane="1" toLane="1" via=":junction1_6_1" tl="junction1" linkIndex="7" dir="s" state="O"/>
    <connection from="1to1" to="1to3" fromLane="2" toLane="1" via=":junction1_8_0" tl="junction1" linkIndex="8" dir="l" state="o"/>
    <connection from="1to2" to="2to4" fromLane="0" toLane="0" via=":junction2_5_0" tl="junction2" linkIndex="5" dir="l" state="o"/>
    <connection from="1to2" to="2to1" fromLane="1" toLane="1" via=":junction2_6_0" tl="junction2" linkIndex="6" dir="t" state="o"/>
    <connection from="1to3" to="3to4" fromLane="0" toLane="0" via=":junction3_5_0" tl="junction3" linkIndex="5" dir="r" state="O"/>
    <connection from="1to3" to="3to1" fromLane="1" toLane="1" via=":junction3_6_0" tl="junction3" linkIndex="6" dir="t" state="o"/>
    <connection from="2to1" to="1to3" fromLane="0" toLane="0" via=":junction1_3_0" tl="junction1" linkIndex="3" dir="r" state="O"/>
    <connection from="2to1" to="1to3" fromLane="1" toLane="1" via=":junction1_3_1" tl="junction1" linkIndex="4" dir="r" state="O"/>
    <connection from="2to1" to="1to2" fromLane="1" toLane="1" via=":junction1_5_0" tl="junction1" linkIndex="5" dir="t" state="o"/>
    <connection from="2to2" to="2to4" fromLane="0" toLane="0" via=":junction2_2_0" tl="junction2" linkIndex="2" dir="r" state="O"/>
    <connection from="2to2" to="2to1" fromLane="0" toLane="0" via=":junction2_3_0" tl="junction2" linkIndex="3" dir="s" state="O"/>
    <connection from="2to2" to="2to1" fromLane="1" toLane="1" via=":junction2_3_1" tl="junction2" linkIndex="4" dir="s" state="O"/>
    <connection from="2to4" to="4to3" fromLane="0" toLane="0" via=":junction4_2_0" dir="l" state="m"/>
    <connection from="2to4" to="4to2" fromLane="0" toLane="0" via=":junction4_3_0" dir="t" state="m"/>
    <connection from="3to1" to="1to2" fromLane="0" toLane="0" via=":junction1_0_0" tl="junction1" linkIndex="0" dir="l" state="o"/>
    <connection from="3to1" to="1to2" fromLane="1" toLane="1" via=":junction1_0_1" tl="junction1" linkIndex="1" dir="l" state="o"/>
    <connection from="3to1" to="1to3" fromLane="1" toLane="1" via=":junction1_2_0" tl="junction1" linkIndex="2" dir="t" state="o"/>
    <connection from="3to3" to="3to1" fromLane="0" toLane="0" via=":junction3_0_0" tl="junction3" linkIndex="0" dir="s" state="O"/>
    <connection from="3to3" to="3to1" fromLane="1" toLane="1" via=":junction3_0_1" tl="junction3" linkIndex="1" dir="s" state="O"/>
    <connection from="3to3" to="3to4" fromLane="1" toLane="0" via=":junction3_2_0" tl="junction3" linkIndex="2" dir="l" state="o"/>
    <connection from="3to4" to="4to2" fromLane="0" toLane="0" via=":junction4_4_0" dir="r" state="m"/>
    <connection from="3to4" to="4to3" fromLane="0" toLane="0" via=":junction4_5_0" dir="t" state="m"/>
    <connection from="4to2" to="2to1" fromLane="0" toLane="0" via=":junction2_0_0" tl="junction2" linkIndex="0" dir="r" state="o"/>
    <connection from="4to2" to="2to4" fromLane="0" toLane="0" via=":junction2_1_0" tl="junction2" linkIndex="1" dir="t" state="o"/>
    <connection from="4to3" to="3to1" fromLane="0" toLane="1" via=":junction3_3_0" tl="junction3" linkIndex="3" dir="l" state="o"/>
    <connection from="4to3" to="3to4" fromLane="0" toLane="0" via=":junction3_4_0" tl="junction3" linkIndex="4" dir="t" state="o"/>
    <connection from="4to4" to="4to3" fromLane="0" toLane="0" via=":junction4_0_0" dir="r" state="M"/>
    <connection from="4to4" to="4to2" fromLane="0" toLane="0" via=":junction4_1_0" dir="s" state="M"/>

    <connection from=":junction1_0" to="1to2" fromLane="0" toLane="0" dir="l" state="M"/>
    <connection from=":junction1_0" to="1to2" fromLane="1" toLane="1" dir="l" state="M"/>
    <connection from=":junction1_2" to="1to3" fromLane="0" toLane="1" via=":junction1_9_0" dir="t" state="m"/>
    <connection from=":junction1_9" to="1to3" fromLane="0" toLane="1" dir="t" state="M"/>
    <connection from=":junction1_3" to="1to3" fromLane="0" toLane="0" dir="r" state="M"/>
    <connection from=":junction1_3" to="1to3" fromLane="1" toLane="1" dir="r" state="M"/>
    <connection from=":junction1_5" to="1to2" fromLane="0" toLane="1" via=":junction1_10_0" dir="t" state="m"/>
    <connection from=":junction1_10" to="1to2" fromLane="0" toLane="1" dir="t" state="M"/>
    <connection from=":junction1_6" to="1to2" fromLane="0" toLane="0" dir="s" state="M"/>
    <connection from=":junction1_6" to="1to2" fromLane="1" toLane="1" dir="s" state="M"/>
    <connection from=":junction1_8" to="1to3" fromLane="0" toLane="1" via=":junction1_11_0" dir="l" state="m"/>
    <connection from=":junction1_11" to="1to3" fromLane="0" toLane="1" dir="l" state="M"/>
    <connection from=":junction2_0" to="2to1" fromLane="0" toLane="0" dir="r" state="M"/>
    <connection from=":junction2_1" to="2to4" fromLane="0" toLane="0" via=":junction2_7_0" dir="t" state="m"/>
    <connection from=":junction2_7" to="2to4" fromLane="0" toLane="0" dir="t" state="M"/>
    <connection from=":junction2_2" to="2to4" fromLane="0" toLane="0" dir="r" state="M"/>
    <connection from=":junction2_3" to="2to1" fromLane="0" toLane="0" dir="s" state="M"/>
    <connection from=":junction2_3" to="2to1" fromLane="1" toLane="1" dir="s" state="M"/>
    <connection from=":junction2_5" to="2to4" fromLane="0" toLane="0" dir="l" state="M"/>
    <connection from=":junction2_6" to="2to1" fromLane="0" toLane="1" via=":junction2_8_0" dir="t" state="m"/>
    <connection from=":junction2_8" to="2to1" fromLane="0" toLane="1" dir="t" state="M"/>
    <connection from=":junction3_0" to="3to1" fromLane="0" toLane="0" dir="s" state="M"/>
    <connection from=":junction3_0" to="3to1" fromLane="1" toLane="1" dir="s" state="M"/>
    <connection from=":junction3_2" to="3to4" fromLane="0" toLane="0" via=":junction3_7_0" dir="l" state="m"/>
    <connection from=":junction3_7" to="3to4" fromLane="0" toLane="0" dir="l" state="M"/>
    <connection from=":junction3_3" to="3to1" fromLane="0" toLane="1" dir="l" state="M"/>
    <connection from=":junction3_4" to="3to4" fromLane="0" toLane="0" via=":junction3_8_0" dir="t" state="m"/>
    <connection from=":junction3_8" to="3to4" fromLane="0" toLane="0" dir="t" state="M"/>
    <connection from=":junction3_5" to="3to4" fromLane="0" toLane="0" dir="r" state="M"/>
    <connection from=":junction3_6" to="3to1" fromLane="0" toLane="1" via=":junction3_9_0" dir="t" state="m"/>
    <connection from=":junction3_9" to="3to1" fromLane="0" toLane="1" dir="t" state="M"/>
    <connection from=":junction4_0" to="4to3" fromLane="0" toLane="0" dir="r" state="M"/>
    <connection from=":junction4_1" to="4to2" fromLane="0" toLane="0" dir="s" state="M"/>
    <connection from=":junction4_2" to="4to3" fromLane="0" toLane="0" via=":junction4_6_0" dir="l" state="m"/>
    <connection from=":junction4_6" to="4to3" fromLane="0" toLane="0" dir="l" state="M"/>
    <connection from=":junction4_3" to="4to2" fromLane="0" toLane="0" via=":junction4_7_0" dir="t" state="m"/>
    <connection from=":junction4_7" to="4to2" fromLane="0" toLane="0" dir="t" state="M"/>
    <connection from=":junction4_4" to="4to2" fromLane="0" toLane="0" dir="r" state="M"/>
    <connection from=":junction4_5" to="4to3" fromLane="0" toLane="0" dir="t" state="M"/>

</net>
